<?xml version="1.0" encoding="UTF-8"?>

<!-- generated on Wed Oct 28 15:15:38 2020 by Eclipse SUMO duarouter Version v1_7_0+0225-03c664a9f7
<configuration xmlns:xsi="http://www.w3.org/2001/XMLSchema-instance" xsi:noNamespaceSchemaLocation="http://sumo.dlr.de/xsd/duarouterConfiguration.xsd">

    <input>
        <net-file value="cross.net.xml"/>
        <route-files value="cross.rou.xml"/>
    </input>

    <output>
        <output-file value="cross.rou.xml"/>
        <alternatives-output value="cross.rou.alt.xml"/>
    </output>

</configuration>
-->

<routes xmlns:xsi="http://www.w3.org/2001/XMLSchema-instance" xsi:noNamespaceSchemaLocation="http://sumo.dlr.de/xsd/routes_file.xsd">
    <vehicle id="DU.0" depart="2.00">
        <route edges="4to0 0to3"/>
    </vehicle>
    <vehicle id="DU.1" depart="5.00">
        <route edges="4to0 0to3"/>
    </vehicle>
    <vehicle id="DU.2" depart="10.00">
        <route edges="4to0 0to3"/>
    </vehicle>
    <vehicle id="LR.0" depart="10.00">
        <route edges="1to0 0to2"/>
    </vehicle>
    <vehicle id="UD.0" depart="13.00">
        <route edges="3to0 0to4"/>
    </vehicle>
    <vehicle id="LR.1" depart="15.00">
        <route edges="1to0 0to2"/>
    </vehicle>
    <vehicle id="DU.3" depart="16.00">
        <route edges="4to0 0to3"/>
    </vehicle>
    <vehicle id="UD.1" depart="17.00">
        <route edges="3to0 0to4"/>
    </vehicle>
    <vehicle id="RL.0" depart="18.00">
        <route edges="2to0 0to1"/>
    </vehicle>
    <vehicle id="DU.4" depart="20.00">
        <route edges="4to0 0to3"/>
    </vehicle>
    <vehicle id="UD.2" depart="22.00">
        <route edges="3to0 0to4"/>
    </vehicle>
    <vehicle id="UD.3" depart="26.00">
        <route edges="3to0 0to4"/>
    </vehicle>
    <vehicle id="UD.4" depart="27.00">
        <route edges="3to0 0to4"/>
    </vehicle>
</routes>
