<routes>
	<flow id="flow12" begin="0" end="300" from="1to0" to="0to2" number="10" />
	<flow id="flow13" begin="0" end="300" from="1to0" to="0to3" number="10" />
	<flow id="flow14" begin="0" end="300" from="1to0" to="0to4" number="10" />
	<flow id="flow21" begin="0" end="300" from="2to0" to="0to1" number="10" />
	<flow id="flow23" begin="0" end="300" from="2to0" to="0to3" number="10" />
	<flow id="flow24" begin="0" end="300" from="2to0" to="0to4" number="10" />
	<flow id="flow31" begin="0" end="300" from="3to0" to="0to1" number="10" />
	<flow id="flow32" begin="0" end="300" from="3to0" to="0to2" number="10" />
	<flow id="flow34" begin="0" end="300" from="3to0" to="0to4" number="10" />
	<flow id="flow41" begin="0" end="300" from="4to0" to="0to1" number="10" />
	<flow id="flow42" begin="0" end="300" from="4to0" to="0to2" number="10" />
	<flow id="flow43" begin="0" end="300" from="4to0" to="0to3" number="10" />
</routes>
