<?xml version="1.0" encoding="UTF-8"?>

<!-- generated on Wed 28 Oct 2020 03:16:13 PM CST by Eclipse SUMO GUI Version v1_7_0+0225-03c664a9f7
-->

<configuration xmlns:xsi="http://www.w3.org/2001/XMLSchema-instance" xsi:noNamespaceSchemaLocation="http://sumo.dlr.de/xsd/sumoConfiguration.xsd">

    <input>
        <net-file value="cross.net.xml"/>
        <route-files value="cross.rou.xml"/>
    </input>

</configuration>
