<?xml version="1.0" encoding="UTF-8"?>

<!-- generated on Fri 09 Oct 2020 10:11:24 AM CST by Eclipse SUMO netedit Version v1_7_0+0225-03c664a9f7
<configuration xmlns:xsi="http://www.w3.org/2001/XMLSchema-instance" xsi:noNamespaceSchemaLocation="http://sumo.dlr.de/xsd/netconvertConfiguration.xsd">

    <input>
        <sumo-net-file value="/ssd/Github/multi-robot-localization/sumo/helloWorld.net.xml"/>
    </input>

    <output>
        <output-file value="/ssd/Github/multi-robot-localization/sumo/helloWorld.net.xml"/>
    </output>

    <processing>
        <geometry.min-radius.fix.railways value="false"/>
        <geometry.max-grade.fix value="false"/>
        <offset.disable-normalization value="true"/>
        <lefthand value="false"/>
    </processing>

    <junctions>
        <no-turnarounds value="true"/>
        <junctions.corner-detail value="5"/>
        <junctions.limit-turn-speed value="5.5"/>
        <rectangular-lane-cut value="false"/>
    </junctions>

    <pedestrian>
        <walkingareas value="false"/>
    </pedestrian>

    <netedit>
        <route-files value="/ssd/Github/multi-robot-localization/sumo/helloWorld.rou.xml"/>
    </netedit>

    <report>
        <aggregate-warnings value="5"/>
    </report>

</configuration>
-->

<routes xmlns:xsi="http://www.w3.org/2001/XMLSchema-instance" xsi:noNamespaceSchemaLocation="http://sumo.dlr.de/xsd/routes_file.xsd">
    <route edges="1to2 out" color="yellow" id="route_0"/>
    <vehicle id="vehicle_0" depart="0.00" color="blue" route="route_0"/>
</routes>
